/*--------------------------------*- C++ -*----------------------------------*\
| ========= | |
| \\ / F ield | OpenFOAM: The Open Source CFD Toolbox |
| \\ / O peration | Version: 5.0 |
| \\ / A nd | Web: www.OpenFOAM.org |
| \\/ M anipulation | |
\*---------------------------------------------------------------------------*/
FoamFile
{
version 2.0;
format ascii;
class dictionary;
location "constant/polyMesh";
object blockMeshDict;
}
// * * * * * * * * * * * * * * * * * * * * * * * * * * * * * * * * * * * * * //






meshGenApp blockMesh;
convertToMeters 1;



              

       

















vertices
(
    (-0.12  0.096  0 )     // Vertex v0 = 0 
    (-0.00848528137423857  0.096   0 )     // Vertex v1 = 1 
    (0.00848528137423857  0.096   0 )     // Vertex v2 = 2 
    (0.168  0.096  0 )     // Vertex v3 = 3 

    (-0.12  0.00848528137423857   0 )     // Vertex v4 = 4 
    (-0.00848528137423857   0.00848528137423857  0 )     // Vertex v5 = 5 
    (0.00848528137423857  0.00848528137423857   0 )     // Vertex v6 = 6 
    (0.168  0.00848528137423857   0 )     // Vertex v7 = 7 

    (-0.12   -0.00848528137423857 0 )     // Vertex v8 = 8 
    (-0.00848528137423857   -0.00848528137423857 0 )     // Vertex v9 = 9 
    ( 0.00848528137423857   -0.00848528137423857 0 )     // Vertex v10 = 10 
    (  0.168  -0.00848528137423857 0 )     // Vertex v11 = 11 

    (-0.12  -0.096  0 )     // Vertex v12 = 12 
    ( -0.00848528137423857  -0.096  0 )     // Vertex v13 = 13 
    (  0.00848528137423857  -0.096  0 )     // Vertex v14 = 14 
    ( 0.168  -0.096   0 )       // Vertex v15 = 15  

    (-0.12   0.096  0.753984)      // Vertex v16 = 16  
    (  -0.00848528137423857  0.096    0.753984 )      // Vertex v17 = 17  
    (  0.00848528137423857  0.096    0.753984 )      // Vertex v18 = 18  
    (  0.168  0.096  0.753984 )      // Vertex v19 = 19  

    ( -0.12  0.00848528137423857   0.753984)      // Vertex v20 = 20  
    ( -0.00848528137423857   0.00848528137423857    0.753984)      // Vertex v21 = 21  
    ( 0.00848528137423857   0.00848528137423857   0.753984)      // Vertex v22 = 22  
    (  0.168   0.00848528137423857  0.753984)      // Vertex v23 = 23  

    (-0.12  -0.00848528137423857    0.753984)      // Vertex v24 = 24  
    ( -0.00848528137423857   -0.00848528137423857    0.753984)      // Vertex v25 = 25  
    (  0.00848528137423857   -0.00848528137423857    0.753984)      // Vertex v26 = 26  
    (  0.168  -0.00848528137423857    0.753984)      // Vertex v27 = 27  

    ( -0.12   -0.096     0.753984)      // Vertex v28 = 28  
    (-0.00848528137423857   -0.096   0.753984)      // Vertex v29 = 29  
    ( 0.00848528137423857   -0.096   0.753984)      // Vertex v30 = 30  
    ( 0.168  -0.096    0.753984)      // Vertex v31 = 31  

);	

blocks
(
    hex (4 5 1 0 20 21 17 16) (60 60 100) simpleGrading (0.05 20 1)
    hex (5 6 2 1 21 22 18 17) (40 60 100) simpleGrading (1 20 1)
    hex (6 7 3 2 22 23 19 18) (100 60 100) simpleGrading (20 20 1)
    hex (8 9 5 4 24 25 21 20) (60 40 100) simpleGrading (0.05 1 1)
    hex (10 11 7 6 26 27 23 22) (100 40 100) simpleGrading (20 1 1)
    hex (12 13 9 8 28 29 25 24) (60 60 100) simpleGrading (0.05 0.05 1)
    hex (13 14 10 9 29 30 26 25) (40 60 100) simpleGrading (1 0.05 1)
    hex (14 15 11 10 30 31 27 26) (100 60 100) simpleGrading (20 0.05 1)
);


//create the quarter circles
edges
(
arc 5 6 ( 0 0.012 0 )
arc 6 10 (0.012  0 0 )
arc 9 10 ( 0 -0.012 0 )
arc 9 5 (-0.012  0 0 )

arc 21 22 ( 0 0.012  0.753984)
arc 26 22 (0.012 0  0.753984)
arc 25 26 ( 0 -0.012  0.753984)
arc 25 21 (-0.012 0  0.753984)
);

boundary
(

    interface
    {
    type   wall;
    faces
    ((5 21 22 6) (6 22 26 10) (10 26 25 9) (9 25 21 5));
    }

    IN
    {
    type   patch;
    faces
    ((4 20 16 0) (8 24 20 4) (12 28 24 8));
    }

    OUT
    {
    type   patch;
    faces
    ((3 19 23 7) (7 23 27 11) (11 27 31 15));
    }

    SYM1
    {
    type   symmetryPlane;
    faces
    ((16 17 1 0) (17 18 2 1) (18 19 3 2) );
    }

    SYM2
    {
    type   symmetryPlane;
    faces
    ((12 13 29 28) (13 14 30 29) (14 15 31 30));
    }

    PER1
    {
    type   symmetryPlane;
    faces
    ((0 1 5 4) (1 2 6 5) (2 3 7 6) (4 5 9 8) (6 7 11 10) (8 9 13 12) 
     (9 10 14 13) (10 11 15 14));
    }

    PER2
    {
    type   symmetryPlane;
    faces
    ((20 21 17 16) (21 22 18 17) (22 23 19 18) 
     (24 25 21 20) (26 27 23 22) (28 29 25 24) (29 30 26 25) (30 31 27 26));
    }

);

// ************************************************** *********************** //

