/*--------------------------------*- C++ -*----------------------------------*\
| =========                 |                                                 |
| \\      /  F ield         | foam-extend: Open Source CFD                    |
|  \\    /   O peration     | Version:     3.0                                |
|   \\  /    A nd           | Web:         http://www.extend-project.de       |
|    \\/     M anipulation  |                                                 |
\*---------------------------------------------------------------------------*/
FoamFile
{
    version     2.0;
    format      ascii;
    class       dictionary;
    object      dynamicMeshDict;
}
// * * * * * * * * * * * * * * * * * * * * * * * * * * * * * * * * * * * * * //

dynamicFvMesh dynamicMotionSolverFvMesh;

solver RBFMeshMotionSolver;

movingPatches ( interface );

staticPatches ( );

fixedPatches ( IN OUT SYM1 SYM2 PER1 PER2);

coarsening
{
  enabled true;
  tol 1.0e-3;
  minPoints 10;
  maxPoints 500;
  livePointSelection true;
  tolLivePointSelection 1.0e-2;
  exportSelectedPoints false;
}

interpolation
{
  function TPS;
}

faceCellCenters false;
